data/rahmat_Feeder_2_v0.1/LinesUnq.txt
New Line.LINE12_1 Bus1=12_1 Bus2=12_2 phases=3 Linecode=4c_70 Length=1.2678 Units=m
New Line.LINE12_2 Bus1=12_2 Bus2=12_3 phases=3 Linecode=4c_70 Length=0.14701 Units=m
New Line.LINE12_3 Bus1=12_3 Bus2=12_4 phases=3 Linecode=4c_70 Length=0.11539 Units=m
New Line.LINE12_4 Bus1=12_4 Bus2=12_5 phases=3 Linecode=4c_70 Length=0.091935 Units=m
New Line.LINE12_5 Bus1=12_5 Bus2=12_6 phases=3 Linecode=4c_70 Length=0.10826 Units=m
New Line.LINE12_6 Bus1=12_6 Bus2=12_7 phases=3 Linecode=4c_70 Length=10.9021 Units=m
New Line.LINE12_7 Bus1=12_7 Bus2=12_8 phases=3 Linecode=4c_70 Length=0.40028 Units=m
New Line.LINE12_8 Bus1=12_8 Bus2=12_9 phases=3 Linecode=4c_70 Length=0.298 Units=m
New Line.LINE12_9 Bus1=12_9 Bus2=12_10 phases=3 Linecode=4c_70 Length=0.37317 Units=m
New Line.LINE12_10 Bus1=12_10 Bus2=12_11 phases=3 Linecode=4c_70 Length=0.39461 Units=m
New Line.LINE12_11 Bus1=12_11 Bus2=12_12 phases=3 Linecode=4c_70 Length=0.35891 Units=m
New Line.LINE12_12 Bus1=12_12 Bus2=12_13 phases=3 Linecode=4c_70 Length=0.43804 Units=m
New Line.LINE12_13 Bus1=12_13 Bus2=12_14 phases=3 Linecode=4c_70 Length=7.3529 Units=m
New Line.LINE12_14 Bus1=12_14 Bus2=12_15 phases=3 Linecode=4c_70 Length=11.2962 Units=m
New Line.LINE12_15 Bus1=12_15 Bus2=12_16 phases=3 Linecode=4c_70 Length=3.6224 Units=m
New Line.LINE12_16 Bus1=12_16 Bus2=12_17 phases=3 Linecode=4c_70 Length=0.31933 Units=m
New Line.LINE12_17 Bus1=12_16 Bus2=12_18 phases=3 Linecode=4c_70 Length=3.9213 Units=m
New Line.LINE12_18 Bus1=12_17 Bus2=12_19 phases=3 Linecode=4c_70 Length=0.09014 Units=m
New Line.LINE12_19 Bus1=12_18 Bus2=12_20 phases=3 Linecode=4c_70 Length=6.5359 Units=m
New Line.LINE12_20 Bus1=12_19 Bus2=12_21 phases=3 Linecode=4c_70 Length=0.095854 Units=m
New Line.LINE12_21 Bus1=12_20 Bus2=12_22 phases=3 Linecode=4c_70 Length=0.10668 Units=m
New Line.LINE12_22 Bus1=12_21 Bus2=12_23 phases=3 Linecode=4c_70 Length=0.076118 Units=m
New Line.LINE12_23 Bus1=12_22 Bus2=12_24 phases=3 Linecode=4c_70 Length=0.201 Units=m
New Line.LINE12_24 Bus1=12_23 Bus2=12_25 phases=3 Linecode=4c_70 Length=0.138 Units=m
New Line.LINE12_25 Bus1=12_24 Bus2=12_26 phases=3 Linecode=4c_70 Length=0.15048 Units=m
New Line.LINE12_26 Bus1=12_25 Bus2=12_27 phases=3 Linecode=4c_70 Length=0.29149 Units=m
New Line.LINE12_27 Bus1=12_26 Bus2=12_28 phases=3 Linecode=4c_70 Length=0.18296 Units=m
New Line.LINE12_28 Bus1=12_27 Bus2=12_29 phases=3 Linecode=4c_70 Length=5.9092 Units=m
New Line.LINE12_29 Bus1=12_28 Bus2=12_30 phases=3 Linecode=4c_70 Length=0.22495 Units=m
New Line.LINE12_30 Bus1=12_29 Bus2=12_31 phases=3 Linecode=4c_70 Length=0.615 Units=m
New Line.LINE12_31 Bus1=12_30 Bus2=12_32 phases=3 Linecode=4c_70 Length=0.18524 Units=m
New Line.LINE12_32 Bus1=12_32 Bus2=12_33 phases=3 Linecode=4c_70 Length=0.30245 Units=m
New Line.LINE12_33 Bus1=12_33 Bus2=12_34 phases=3 Linecode=4c_70 Length=0.27631 Units=m
New Line.LINE12_34 Bus1=12_34 Bus2=12_35 phases=3 Linecode=4c_70 Length=0.29119 Units=m
New Line.LINE12_35 Bus1=12_35 Bus2=12_36 phases=3 Linecode=4c_70 Length=0.068154 Units=m
New Line.LINE12_36 Bus1=12_36 Bus2=12_37 phases=3 Linecode=4c_70 Length=0.16313 Units=m
New Line.LINE12_37 Bus1=12_37 Bus2=12_38 phases=3 Linecode=4c_70 Length=0.39768 Units=m
New Line.LINE12_38 Bus1=12_38 Bus2=12_39 phases=3 Linecode=4c_70 Length=7.942 Units=m
New Line.LINE12_39 Bus1=12_39 Bus2=12_40 phases=3 Linecode=4c_70 Length=1.8421 Units=m
New Line.LINE12_40 Bus1=12_40 Bus2=12_41 phases=3 Linecode=4c_70 Length=0.52269 Units=m
New Line.LINE12_41 Bus1=12_40 Bus2=12_42 phases=3 Linecode=4c_70 Length=2.3487 Units=m
New Line.LINE12_42 Bus1=12_42 Bus2=12_43 phases=3 Linecode=4c_70 Length=0.45549 Units=m
New Line.LINE12_43 Bus1=12_43 Bus2=12_44 phases=3 Linecode=4c_70 Length=0.38293 Units=m
New Line.LINE12_44 Bus1=12_44 Bus2=12_45 phases=3 Linecode=4c_70 Length=0.42216 Units=m
New Line.LINE12_45 Bus1=12_45 Bus2=12_46 phases=3 Linecode=4c_70 Length=0.48601 Units=m
New Line.LINE12_46 Bus1=12_46 Bus2=12_47 phases=3 Linecode=4c_70 Length=0.7176 Units=m
New Line.LINE12_47 Bus1=12_47 Bus2=12_48 phases=3 Linecode=4c_70 Length=0.54623 Units=m
New Line.LINE12_48 Bus1=12_48 Bus2=12_49 phases=3 Linecode=4c_70 Length=0.47164 Units=m
New Line.LINE12_49 Bus1=12_49 Bus2=12_50 phases=3 Linecode=4c_70 Length=0.30936 Units=m
New Line.LINE12_50 Bus1=12_50 Bus2=12_51 phases=3 Linecode=4c_70 Length=0.3128 Units=m
New Line.LINE12_51 Bus1=12_51 Bus2=12_52 phases=3 Linecode=4c_70 Length=0.35569 Units=m
New Line.LINE12_52 Bus1=12_52 Bus2=12_53 phases=3 Linecode=4c_70 Length=0.65323 Units=m
New Line.LINE12_53 Bus1=12_53 Bus2=12_54 phases=3 Linecode=4c_70 Length=5.6025 Units=m
New Line.LINE12_54 Bus1=12_54 Bus2=12_55 phases=3 Linecode=4c_70 Length=0.16388 Units=m
New Line.LINE12_55 Bus1=12_55 Bus2=12_56 phases=3 Linecode=4c_70 Length=0.22588 Units=m
New Line.LINE12_56 Bus1=12_56 Bus2=12_57 phases=3 Linecode=4c_70 Length=0.23492 Units=m
New Line.LINE12_57 Bus1=12_57 Bus2=12_58 phases=3 Linecode=4c_70 Length=0.19624 Units=m
New Line.LINE12_58 Bus1=12_58 Bus2=12_59 phases=3 Linecode=4c_70 Length=0.28481 Units=m
New Line.LINE12_59 Bus1=12_59 Bus2=12_60 phases=3 Linecode=4c_70 Length=0.30895 Units=m
New Line.LINE12_60 Bus1=12_60 Bus2=12_61 phases=3 Linecode=4c_70 Length=0.34812 Units=m
New Line.LINE12_61 Bus1=12_61 Bus2=12_62 phases=3 Linecode=4c_70 Length=0.3491 Units=m
New Line.LINE12_62 Bus1=12_62 Bus2=12_63 phases=3 Linecode=4c_70 Length=0.24452 Units=m
New Line.LINE12_63 Bus1=12_63 Bus2=12_64 phases=3 Linecode=4c_70 Length=0.326 Units=m
New Line.LINE12_64 Bus1=12_64 Bus2=12_65 phases=3 Linecode=4c_70 Length=0.601 Units=m
New Line.LINE12_65 Bus1=12_65 Bus2=12_66 phases=3 Linecode=4c_300_SAC Length=0.47332 Units=m
New Line.LINE12_66 Bus1=12_65 Bus2=12_67 phases=3 Linecode=4c_.1 Length=4.28 Units=m
New Line.LINE12_67 Bus1=12_66 Bus2=12_68 phases=3 Linecode=4c_300_SAC Length=0.72048 Units=m
New Line.LINE12_68 Bus1=12_67 Bus2=12_69 phases=3 Linecode=4c_.1 Length=0.642 Units=m
New Line.LINE12_69 Bus1=12_67 Bus2=12_70 phases=3 Linecode=4c_.1 Length=5.9972 Units=m
New Line.LINE12_70 Bus1=12_68 Bus2=12_71 phases=3 Linecode=4c_300_SAC Length=1.0686 Units=m
New Line.LINE12_71 Bus1=12_70 Bus2=12_72 phases=3 Linecode=4c_.1 Length=0.68171 Units=m
New Line.LINE12_72 Bus1=12_70 Bus2=12_73 phases=3 Linecode=4c_.1 Length=2.604 Units=m
New Line.LINE12_73 Bus1=12_71 Bus2=12_74 phases=3 Linecode=4c_300_SAC Length=0.85425 Units=m
New Line.LINE12_74 Bus1=12_73 Bus2=12_75 phases=3 Linecode=4c_.1 Length=0.64295 Units=m
New Line.LINE12_75 Bus1=12_73 Bus2=12_76 phases=3 Linecode=4c_.1 Length=6.4225 Units=m
New Line.LINE12_76 Bus1=12_74 Bus2=12_77 phases=3 Linecode=4c_300_SAC Length=0.79964 Units=m
New Line.LINE12_77 Bus1=12_76 Bus2=12_78 phases=3 Linecode=4c_.1 Length=0.61537 Units=m
New Line.LINE12_78 Bus1=12_76 Bus2=12_79 phases=3 Linecode=4c_.1 Length=0.71391 Units=m
New Line.LINE12_79 Bus1=12_77 Bus2=12_80 phases=3 Linecode=4c_300_SAC Length=0.56945 Units=m
New Line.LINE12_80 Bus1=12_79 Bus2=12_81 phases=3 Linecode=4c_.1 Length=0.57213 Units=m
New Line.LINE12_81 Bus1=12_79 Bus2=12_82 phases=3 Linecode=4c_.1 Length=4.0611 Units=m
New Line.LINE12_82 Bus1=12_80 Bus2=12_83 phases=3 Linecode=4c_300_SAC Length=0.4081 Units=m
New Line.LINE12_83 Bus1=12_82 Bus2=12_84 phases=3 Linecode=4c_.1 Length=0.40328 Units=m
New Line.LINE12_84 Bus1=12_83 Bus2=12_85 phases=3 Linecode=4c_300_SAC Length=0.391 Units=m
New Line.LINE12_85 Bus1=12_84 Bus2=12_86 phases=3 Linecode=4c_.1 Length=1.0115 Units=m
New Line.LINE12_86 Bus1=12_85 Bus2=12_87 phases=3 Linecode=4c_300_SAC Length=0.36271 Units=m
New Line.LINE12_87 Bus1=12_86 Bus2=12_88 phases=3 Linecode=4c_.1 Length=0.575 Units=m
New Line.LINE12_88 Bus1=12_86 Bus2=12_89 phases=3 Linecode=4c_.1 Length=4.9754 Units=m
New Line.LINE12_89 Bus1=12_87 Bus2=12_90 phases=3 Linecode=4c_300_SAC Length=0.9651 Units=m
New Line.LINE12_90 Bus1=12_89 Bus2=12_91 phases=3 Linecode=4c_.1 Length=0.60701 Units=m
New Line.LINE12_91 Bus1=12_89 Bus2=12_92 phases=3 Linecode=4c_.1 Length=4.2035 Units=m
New Line.LINE12_92 Bus1=12_90 Bus2=12_93 phases=3 Linecode=4c_300_SAC Length=0.24449 Units=m
New Line.LINE12_93 Bus1=12_90 Bus2=12_94 phases=3 Linecode=4c_300_SAC Length=1.0592 Units=m
New Line.LINE12_94 Bus1=12_92 Bus2=12_95 phases=3 Linecode=4c_.1 Length=0.56542 Units=m
New Line.LINE12_95 Bus1=12_92 Bus2=12_96 phases=3 Linecode=4c_.1 Length=5.4418 Units=m
New Line.LINE12_96 Bus1=12_93 Bus2=12_97 phases=3 Linecode=4c_300_SAC Length=0.22561 Units=m
New Line.LINE12_97 Bus1=12_94 Bus2=12_98 phases=3 Linecode=4c_300_SAC Length=5.4917 Units=m
New Line.LINE12_98 Bus1=12_96 Bus2=12_99 phases=3 Linecode=4c_.1 Length=0.534 Units=m
New Line.LINE12_99 Bus1=12_96 Bus2=12_100 phases=3 Linecode=4c_.1 Length=2.4912 Units=m
New Line.LINE12_100 Bus1=12_97 Bus2=12_101 phases=3 Linecode=4c_300_SAC Length=0.138 Units=m
New Line.LINE12_101 Bus1=12_98 Bus2=12_102 phases=3 Linecode=4c_300_SAC Length=0.97602 Units=m
New Line.LINE12_102 Bus1=12_98 Bus2=12_103 phases=3 Linecode=4c_300_SAC Length=3.9741 Units=m
New Line.LINE12_103 Bus1=12_100 Bus2=12_104 phases=3 Linecode=4c_.1 Length=3.9957 Units=m
New Line.LINE12_104 Bus1=12_100 Bus2=12_105 phases=3 Linecode=4c_.06 Length=0.12802 Units=m
New Line.LINE12_105 Bus1=12_101 Bus2=12_106 phases=3 Linecode=4c_300_SAC Length=0.16744 Units=m
New Line.LINE12_106 Bus1=12_102 Bus2=12_107 phases=3 Linecode=4c_300_SAC Length=0.22539 Units=m
New Line.LINE12_107 Bus1=12_103 Bus2=12_108 phases=3 Linecode=35_SAC_XC Length=1.4417 Units=m
New Line.LINE12_108 Bus1=12_103 Bus2=12_109 phases=3 Linecode=4c_300_SAC Length=6.2021 Units=m
New Line.LINE12_109 Bus1=12_104 Bus2=12_110 phases=3 Linecode=4c_.1 Length=6.2731 Units=m
New Line.LINE12_110 Bus1=12_105 Bus2=12_111 phases=3 Linecode=4c_.06 Length=0.14339 Units=m
New Line.LINE12_111 Bus1=12_106 Bus2=12_112 phases=3 Linecode=4c_300_SAC Length=0.115 Units=m
New Line.LINE12_112 Bus1=12_107 Bus2=12_113 phases=3 Linecode=4c_300_SAC Length=0.20822 Units=m
New Line.LINE12_113 Bus1=12_108 Bus2=12_114 phases=3 Linecode=35_SAC_XC Length=0.11424 Units=m
New Line.LINE12_114 Bus1=12_109 Bus2=12_115 phases=3 Linecode=25_SAC_XC Length=18.6333 Units=m
New Line.LINE12_115 Bus1=12_109 Bus2=12_116 phases=3 Linecode=4c_300_SAC Length=3.71 Units=m
New Line.LINE12_116 Bus1=12_110 Bus2=12_117 phases=3 Linecode=4c_.1 Length=6.8138 Units=m
New Line.LINE12_117 Bus1=12_111 Bus2=12_118 phases=3 Linecode=4c_.06 Length=0.1651 Units=m
New Line.LINE12_118 Bus1=12_112 Bus2=12_119 phases=3 Linecode=4c_300_SAC Length=0.16744 Units=m
New Line.LINE12_119 Bus1=12_113 Bus2=12_120 phases=3 Linecode=4c_300_SAC Length=0.19026 Units=m
New Line.LINE12_120 Bus1=12_114 Bus2=12_121 phases=3 Linecode=35_SAC_XC Length=0.11322 Units=m
New Line.LINE12_121 Bus1=12_116 Bus2=12_122 phases=3 Linecode=4c_300_SAC Length=3.578 Units=m
New Line.LINE12_122 Bus1=12_117 Bus2=12_123 phases=3 Linecode=4c_.1 Length=0.24502 Units=m
New Line.LINE12_123 Bus1=12_118 Bus2=12_124 phases=3 Linecode=4c_.06 Length=0.18768 Units=m
New Line.LINE12_124 Bus1=12_119 Bus2=12_125 phases=3 Linecode=4c_300_SAC Length=0.57446 Units=m
New Line.LINE12_125 Bus1=12_120 Bus2=12_126 phases=3 Linecode=4c_300_SAC Length=0.16323 Units=m
New Line.LINE12_126 Bus1=12_121 Bus2=12_127 phases=3 Linecode=35_SAC_XC Length=0.11428 Units=m
New Line.LINE12_127 Bus1=12_122 Bus2=12_128 phases=3 Linecode=4c_300_SAC Length=2.0533 Units=m
New Line.LINE12_128 Bus1=12_123 Bus2=12_129 phases=3 Linecode=4c_.1 Length=0.19025 Units=m
New Line.LINE12_129 Bus1=12_124 Bus2=12_130 phases=3 Linecode=4c_.06 Length=0.18768 Units=m
New Line.LINE12_130 Bus1=12_126 Bus2=12_131 phases=3 Linecode=4c_300_SAC Length=0.24887 Units=m
New Line.LINE12_131 Bus1=12_127 Bus2=12_132 phases=3 Linecode=35_SAC_XC Length=0.11385 Units=m
New Line.LINE12_132 Bus1=12_128 Bus2=12_133 phases=3 Linecode=4c_300_SAC Length=2.2731 Units=m
New Line.LINE12_133 Bus1=12_129 Bus2=12_134 phases=3 Linecode=4c_.1 Length=0.12572 Units=m
New Line.LINE12_134 Bus1=12_130 Bus2=12_135 phases=3 Linecode=4c_.06 Length=0.16026 Units=m
New Line.LINE12_135 Bus1=12_131 Bus2=12_136 phases=3 Linecode=4c_300_SAC Length=0.71943 Units=m
New Line.LINE12_136 Bus1=12_132 Bus2=12_137 phases=3 Linecode=35_SAC_XC Length=0.11455 Units=m
New Line.LINE12_137 Bus1=12_133 Bus2=12_138 phases=3 Linecode=4c_300_SAC Length=7.6821 Units=m
New Line.LINE12_138 Bus1=12_134 Bus2=12_139 phases=3 Linecode=4c_.1 Length=0.17913 Units=m
New Line.LINE12_139 Bus1=12_135 Bus2=12_140 phases=3 Linecode=4c_.06 Length=0.098858 Units=m
New Line.LINE12_140 Bus1=12_137 Bus2=12_141 phases=3 Linecode=35_SAC_XC Length=0.11332 Units=m
New Line.LINE12_141 Bus1=12_138 Bus2=12_142 phases=3 Linecode=4c_.5 Length=1.5452 Units=m
New Line.LINE12_142 Bus1=12_139 Bus2=12_143 phases=3 Linecode=4c_.1 Length=0.32023 Units=m
New Line.LINE12_143 Bus1=12_140 Bus2=12_144 phases=3 Linecode=4c_.06 Length=0.10465 Units=m
New Line.LINE12_144 Bus1=12_141 Bus2=12_145 phases=3 Linecode=35_SAC_XC Length=0.11378 Units=m
New Line.LINE12_145 Bus1=12_142 Bus2=12_146 phases=3 Linecode=4c_.5 Length=0.32006 Units=m
New Line.LINE12_146 Bus1=12_143 Bus2=12_147 phases=3 Linecode=4c_.06 Length=1.2044 Units=m
New Line.LINE12_147 Bus1=12_143 Bus2=12_148 phases=3 Linecode=4c_.06 Length=0.25849 Units=m
New Line.LINE12_148 Bus1=12_144 Bus2=12_149 phases=3 Linecode=4c_.06 Length=1.1303 Units=m
New Line.LINE12_149 Bus1=12_145 Bus2=12_150 phases=3 Linecode=35_SAC_XC Length=0.11411 Units=m
New Line.LINE12_150 Bus1=12_146 Bus2=12_151 phases=3 Linecode=4c_.5 Length=0.27351 Units=m
New Line.LINE12_151 Bus1=12_147 Bus2=12_152 phases=3 Linecode=4c_.06 Length=0.9003 Units=m
New Line.LINE12_152 Bus1=12_148 Bus2=12_153 phases=3 Linecode=4c_.06 Length=1.1967 Units=m
New Line.LINE12_153 Bus1=12_149 Bus2=12_154 phases=3 Linecode=4c_.06 Length=5.0734 Units=m
New Line.LINE12_154 Bus1=12_151 Bus2=12_155 phases=3 Linecode=4c_.5 Length=0.25111 Units=m
New Line.LINE12_155 Bus1=12_152 Bus2=12_156 phases=3 Linecode=4c_.06 Length=1.0219 Units=m
New Line.LINE12_156 Bus1=12_153 Bus2=12_157 phases=3 Linecode=4c_.06 Length=1.0863 Units=m
New Line.LINE12_157 Bus1=12_154 Bus2=12_158 phases=3 Linecode=4c_.06 Length=0.35328 Units=m
New Line.LINE12_158 Bus1=12_155 Bus2=12_159 phases=3 Linecode=4c_.5 Length=0.24535 Units=m
New Line.LINE12_159 Bus1=12_156 Bus2=12_160 phases=3 Linecode=4c_.06 Length=0.816 Units=m
New Line.LINE12_160 Bus1=12_157 Bus2=12_161 phases=3 Linecode=4c_.06 Length=2.8635 Units=m
New Line.LINE12_161 Bus1=12_158 Bus2=12_162 phases=3 Linecode=4c_.06 Length=0.24444 Units=m
New Line.LINE12_162 Bus1=12_159 Bus2=12_163 phases=3 Linecode=4c_.5 Length=0.32177 Units=m
New Line.LINE12_163 Bus1=12_160 Bus2=12_164 phases=3 Linecode=4c_.06 Length=0.68062 Units=m
New Line.LINE12_164 Bus1=12_161 Bus2=12_165 phases=3 Linecode=4c_.06 Length=6.5871 Units=m
New Line.LINE12_165 Bus1=12_162 Bus2=12_166 phases=3 Linecode=4c_.06 Length=0.16586 Units=m
New Line.LINE12_166 Bus1=12_163 Bus2=12_167 phases=3 Linecode=4c_.5 Length=0.39623 Units=m
New Line.LINE12_167 Bus1=12_164 Bus2=12_168 phases=3 Linecode=4c_.06 Length=0.8392 Units=m
New Line.LINE12_168 Bus1=12_165 Bus2=12_169 phases=3 Linecode=2c_.0225 Length=7.3715 Units=m
New Line.LINE12_169 Bus1=12_165 Bus2=12_170 phases=3 Linecode=4c_.06 Length=2.1281 Units=m
New Line.LINE12_170 Bus1=12_166 Bus2=12_171 phases=3 Linecode=4c_.06 Length=0.3027 Units=m
New Line.LINE12_171 Bus1=12_167 Bus2=12_172 phases=3 Linecode=4c_.5 Length=2.8593 Units=m
New Line.LINE12_172 Bus1=12_168 Bus2=12_173 phases=3 Linecode=4c_.06 Length=0.90468 Units=m
New Line.LINE12_173 Bus1=12_169 Bus2=12_174 phases=3 Linecode=2c_.0225 Length=0.4837 Units=m
New Line.LINE12_174 Bus1=12_170 Bus2=12_175 phases=3 Linecode=2c_.0225 Length=7.2098 Units=m
New Line.LINE12_175 Bus1=12_170 Bus2=12_176 phases=3 Linecode=4c_.06 Length=10.1945 Units=m
New Line.LINE12_176 Bus1=12_171 Bus2=12_177 phases=3 Linecode=4c_.06 Length=0.41015 Units=m
New Line.LINE12_177 Bus1=12_172 Bus2=12_178 phases=3 Linecode=4c_.5 Length=9.9495 Units=m
New Line.LINE12_178 Bus1=12_173 Bus2=12_179 phases=3 Linecode=4c_.06 Length=0.57899 Units=m
New Line.LINE12_179 Bus1=12_174 Bus2=12_180 phases=3 Linecode=2c_.0225 Length=0.3844 Units=m
New Line.LINE12_180 Bus1=12_175 Bus2=12_181 phases=3 Linecode=2c_.0225 Length=7.5749 Units=m
New Line.LINE12_181 Bus1=12_176 Bus2=12_182 phases=3 Linecode=2c_.007 Length=0.27554 Units=m
New Line.LINE12_182 Bus1=12_176 Bus2=12_183 phases=3 Linecode=4c_.06 Length=3.0002 Units=m
New Line.LINE12_183 Bus1=12_177 Bus2=12_184 phases=3 Linecode=4c_.06 Length=0.8107 Units=m
New Line.LINE12_184 Bus1=12_178 Bus2=12_185 phases=3 Linecode=4c_.5 Length=13.337 Units=m
New Line.LINE12_185 Bus1=12_179 Bus2=12_186 phases=3 Linecode=4c_.06 Length=6.995 Units=m
New Line.LINE12_186 Bus1=12_180 Bus2=12_187 phases=3 Linecode=2c_.0225 Length=0.19807 Units=m
New Line.LINE12_187 Bus1=12_182 Bus2=12_188 phases=3 Linecode=2c_.007 Length=0.20951 Units=m
New Line.LINE12_188 Bus1=12_183 Bus2=12_189 phases=3 Linecode=2c_.0225 Length=7.4458 Units=m
New Line.LINE12_189 Bus1=12_183 Bus2=12_190 phases=3 Linecode=4c_.06 Length=4.0245 Units=m
New Line.LINE12_190 Bus1=12_184 Bus2=12_191 phases=3 Linecode=4c_.06 Length=1.4826 Units=m
New Line.LINE12_191 Bus1=12_185 Bus2=12_192 phases=3 Linecode=4c_.5 Length=4.6277 Units=m
New Line.LINE12_192 Bus1=12_186 Bus2=12_193 phases=3 Linecode=4c_.06 Length=1.6496 Units=m
New Line.LINE12_193 Bus1=12_187 Bus2=12_194 phases=3 Linecode=2c_.0225 Length=0.33179 Units=m
New Line.LINE12_194 Bus1=12_188 Bus2=12_195 phases=3 Linecode=2c_.007 Length=0.19228 Units=m
New Line.LINE12_195 Bus1=12_189 Bus2=12_196 phases=3 Linecode=2c_.0225 Length=5.1426 Units=m
New Line.LINE12_196 Bus1=12_190 Bus2=12_197 phases=3 Linecode=2c_.0225 Length=7.7733 Units=m
New Line.LINE12_197 Bus1=12_190 Bus2=12_198 phases=3 Linecode=4c_.06 Length=5.7798 Units=m
New Line.LINE12_198 Bus1=12_191 Bus2=12_199 phases=3 Linecode=4c_.06 Length=1.6369 Units=m
New Line.LINE12_199 Bus1=12_192 Bus2=12_200 phases=3 Linecode=4c_.5 Length=4.134 Units=m
New Line.LINE12_200 Bus1=12_193 Bus2=12_201 phases=3 Linecode=4c_.06 Length=2.9151 Units=m
New Line.LINE12_201 Bus1=12_194 Bus2=12_202 phases=3 Linecode=2c_.0225 Length=0.33984 Units=m
New Line.LINE12_202 Bus1=12_195 Bus2=12_203 phases=3 Linecode=2c_.007 Length=0.41155 Units=m
New Line.LINE12_203 Bus1=12_197 Bus2=12_204 phases=3 Linecode=2c_.0225 Length=0.57905 Units=m
New Line.LINE12_204 Bus1=12_198 Bus2=12_205 phases=3 Linecode=4c_.06 Length=1.9267 Units=m
New Line.LINE12_205 Bus1=12_199 Bus2=12_206 phases=3 Linecode=2c_.0225 Length=0.49573 Units=m
New Line.LINE12_206 Bus1=12_199 Bus2=12_207 phases=3 Linecode=4c_.06 Length=1.582 Units=m
New Line.LINE12_207 Bus1=12_200 Bus2=12_208 phases=3 Linecode=4c_.5 Length=0.31369 Units=m
New Line.LINE12_208 Bus1=12_201 Bus2=12_209 phases=3 Linecode=2c_.0225 Length=7.8473 Units=m
New Line.LINE12_209 Bus1=12_201 Bus2=12_210 phases=3 Linecode=4c_.06 Length=12.6298 Units=m
New Line.LINE12_210 Bus1=12_202 Bus2=12_211 phases=3 Linecode=2c_.0225 Length=1.7807 Units=m
New Line.LINE12_211 Bus1=12_203 Bus2=12_212 phases=3 Linecode=4_PSC Length=0.26446 Units=m
New Line.LINE12_212 Bus1=12_204 Bus2=12_213 phases=3 Linecode=2c_.0225 Length=0.23119 Units=m
New Line.LINE12_213 Bus1=12_205 Bus2=12_214 phases=3 Linecode=4c_.06 Length=1.2534 Units=m
New Line.LINE12_214 Bus1=12_206 Bus2=12_215 phases=3 Linecode=2c_.0225 Length=0.26681 Units=m
New Line.LINE12_215 Bus1=12_207 Bus2=12_216 phases=3 Linecode=2c_.007 Length=0.18928 Units=m
New Line.LINE12_216 Bus1=12_207 Bus2=12_217 phases=3 Linecode=4c_.06 Length=1.9147 Units=m
New Line.LINE12_217 Bus1=12_208 Bus2=12_218 phases=3 Linecode=4c_.5 Length=0.25139 Units=m
New Line.LINE12_218 Bus1=12_209 Bus2=12_219 phases=3 Linecode=2c_.0225 Length=5.133 Units=m
New Line.LINE12_219 Bus1=12_210 Bus2=12_220 phases=3 Linecode=2c_.0225 Length=7.7335 Units=m
New Line.LINE12_220 Bus1=12_210 Bus2=12_221 phases=3 Linecode=4c_.06 Length=3.3509 Units=m
New Line.LINE12_221 Bus1=12_211 Bus2=12_222 phases=3 Linecode=2c_.0225 Length=5.1057 Units=m
New Line.LINE12_222 Bus1=12_211 Bus2=12_223 phases=3 Linecode=2c_.0225 Length=5.1057 Units=m
New Line.LINE12_223 Bus1=12_212 Bus2=12_224 phases=3 Linecode=4_PSC Length=0.21543 Units=m
New Line.LINE12_224 Bus1=12_213 Bus2=12_225 phases=3 Linecode=2c_.0225 Length=0.15902 Units=m
New Line.LINE12_225 Bus1=12_214 Bus2=12_226 phases=3 Linecode=4c_.06 Length=1.4148 Units=m
New Line.LINE12_226 Bus1=12_215 Bus2=12_227 phases=3 Linecode=2c_.0225 Length=0.34979 Units=m
New Line.LINE12_227 Bus1=12_216 Bus2=12_228 phases=3 Linecode=2c_.007 Length=0.2594 Units=m
New Line.LINE12_228 Bus1=12_217 Bus2=12_229 phases=3 Linecode=2c_.0225 Length=7.733 Units=m
New Line.LINE12_229 Bus1=12_217 Bus2=12_230 phases=3 Linecode=4c_.06 Length=2.803 Units=m
New Line.LINE12_230 Bus1=12_218 Bus2=12_231 phases=3 Linecode=4c_.5 Length=0.32995 Units=m
New Line.LINE12_231 Bus1=12_220 Bus2=12_232 phases=3 Linecode=2c_.0225 Length=4.1663 Units=m
New Line.LINE12_232 Bus1=12_221 Bus2=12_233 phases=3 Linecode=4c_.06 Length=0.21513 Units=m
New Line.LINE12_233 Bus1=12_221 Bus2=12_234 phases=3 Linecode=4c_.06 Length=3.6388 Units=m
New Line.LINE12_234 Bus1=12_224 Bus2=12_235 phases=3 Linecode=4_PSC Length=0.20951 Units=m
New Line.LINE12_235 Bus1=12_225 Bus2=12_236 phases=3 Linecode=2c_.0225 Length=0.19228 Units=m
New Line.LINE12_236 Bus1=12_226 Bus2=12_237 phases=3 Linecode=4c_.06 Length=1.0463 Units=m
New Line.LINE12_237 Bus1=12_227 Bus2=12_238 phases=3 Linecode=2c_.0225 Length=6.1969 Units=m
New Line.LINE12_238 Bus1=12_228 Bus2=12_239 phases=3 Linecode=2c_.007 Length=0.27049 Units=m
New Line.LINE12_239 Bus1=12_229 Bus2=12_240 phases=3 Linecode=2c_.0225 Length=5.2959 Units=m
New Line.LINE12_240 Bus1=12_230 Bus2=12_241 phases=3 Linecode=4c_.06 Length=11.1833 Units=m
New Line.LINE12_241 Bus1=12_231 Bus2=12_242 phases=3 Linecode=4c_.5 Length=0.29165 Units=m
New Line.LINE12_242 Bus1=12_233 Bus2=12_243 phases=3 Linecode=4c_.06 Length=0.21836 Units=m
New Line.LINE12_243 Bus1=12_234 Bus2=12_244 phases=3 Linecode=2c_.0225 Length=2.4762 Units=m
New Line.LINE12_244 Bus1=12_234 Bus2=12_245 phases=3 Linecode=4c_.06 Length=6.2937 Units=m
New Line.LINE12_245 Bus1=12_235 Bus2=12_246 phases=3 Linecode=4_PSC Length=0.32758 Units=m
New Line.LINE12_246 Bus1=12_236 Bus2=12_247 phases=3 Linecode=2c_.0225 Length=0.21197 Units=m
New Line.LINE12_247 Bus1=12_237 Bus2=12_248 phases=3 Linecode=4c_.06 Length=0.73831 Units=m
New Line.LINE12_248 Bus1=12_238 Bus2=12_249 phases=3 Linecode=2c_.0225 Length=0.37136 Units=m
New Line.LINE12_249 Bus1=12_239 Bus2=12_250 phases=3 Linecode=2c_.007 Length=0.26417 Units=m
New Line.LINE12_250 Bus1=12_241 Bus2=12_251 phases=3 Linecode=2c_.0225 Length=6.7186 Units=m
New Line.LINE12_251 Bus1=12_241 Bus2=12_252 phases=3 Linecode=4c_.06 Length=4.2833 Units=m
New Line.LINE12_252 Bus1=12_242 Bus2=12_253 phases=3 Linecode=4c_.5 Length=0.36513 Units=m
New Line.LINE12_253 Bus1=12_243 Bus2=12_254 phases=3 Linecode=4c_.06 Length=0.29969 Units=m
New Line.LINE12_254 Bus1=12_244 Bus2=12_255 phases=3 Linecode=2c_.0225 Length=0.22672 Units=m
New Line.LINE12_255 Bus1=12_246 Bus2=12_256 phases=3 Linecode=4_PSC Length=1.3444 Units=m
New Line.LINE12_256 Bus1=12_247 Bus2=12_257 phases=3 Linecode=2c_.0225 Length=0.21197 Units=m
New Line.LINE12_257 Bus1=12_248 Bus2=12_258 phases=3 Linecode=4c_.06 Length=1.0723 Units=m
New Line.LINE12_258 Bus1=12_249 Bus2=12_259 phases=3 Linecode=2c_.0225 Length=0.40266 Units=m
New Line.LINE12_259 Bus1=12_250 Bus2=12_260 phases=3 Linecode=2c_.007 Length=0.1516 Units=m
New Line.LINE12_260 Bus1=12_251 Bus2=12_261 phases=3 Linecode=2c_.0225 Length=1.136 Units=m
New Line.LINE12_261 Bus1=12_251 Bus2=12_262 phases=3 Linecode=2c_.0225 Length=1.207 Units=m
New Line.LINE12_262 Bus1=12_252 Bus2=12_263 phases=3 Linecode=4c_.06 Length=8.1431 Units=m
New Line.LINE12_263 Bus1=12_253 Bus2=12_264 phases=3 Linecode=4c_.5 Length=0.43115 Units=m
New Line.LINE12_264 Bus1=12_254 Bus2=12_265 phases=3 Linecode=4c_.06 Length=0.29955 Units=m
New Line.LINE12_265 Bus1=12_255 Bus2=12_266 phases=3 Linecode=2c_.0225 Length=0.32487 Units=m
New Line.LINE12_266 Bus1=12_257 Bus2=12_267 phases=3 Linecode=2c_.0225 Length=0.75412 Units=m
New Line.LINE12_267 Bus1=12_258 Bus2=12_268 phases=3 Linecode=4c_.06 Length=0.78189 Units=m
New Line.LINE12_268 Bus1=12_259 Bus2=12_269 phases=3 Linecode=2c_.0225 Length=0.46672 Units=m
New Line.LINE12_269 Bus1=12_260 Bus2=12_270 phases=3 Linecode=2c_.007 Length=0.24444 Units=m
New Line.LINE12_270 Bus1=12_261 Bus2=12_271 phases=3 Linecode=2c_.0225 Length=4.8291 Units=m
New Line.LINE12_271 Bus1=12_262 Bus2=12_272 phases=3 Linecode=2c_.0225 Length=0.29 Units=m
New Line.LINE12_272 Bus1=12_263 Bus2=12_273 phases=3 Linecode=2c_.0225 Length=8.2289 Units=m
New Line.LINE12_273 Bus1=12_263 Bus2=12_274 phases=3 Linecode=4c_.06 Length=7.6317 Units=m
New Line.LINE12_274 Bus1=12_264 Bus2=12_275 phases=3 Linecode=4c_.5 Length=0.63545 Units=m
New Line.LINE12_275 Bus1=12_265 Bus2=12_276 phases=3 Linecode=4c_.06 Length=0.16085 Units=m
New Line.LINE12_276 Bus1=12_266 Bus2=12_277 phases=3 Linecode=2c_.0225 Length=0.40594 Units=m
New Line.LINE12_277 Bus1=12_267 Bus2=12_278 phases=3 Linecode=2c_.0225 Length=4.4991 Units=m
New Line.LINE12_278 Bus1=12_267 Bus2=12_279 phases=3 Linecode=2c_.0225 Length=4.4991 Units=m
New Line.LINE12_279 Bus1=12_268 Bus2=12_280 phases=3 Linecode=4c_.06 Length=0.85234 Units=m
New Line.LINE12_280 Bus1=12_269 Bus2=12_281 phases=3 Linecode=2c_.0225 Length=2.4414 Units=m
New Line.LINE12_281 Bus1=12_270 Bus2=12_282 phases=3 Linecode=2c_.007 Length=0.31208 Units=m
New Line.LINE12_282 Bus1=12_272 Bus2=12_283 phases=3 Linecode=2c_.0225 Length=0.29099 Units=m
New Line.LINE12_283 Bus1=12_273 Bus2=12_284 phases=3 Linecode=2c_.0225 Length=5.0187 Units=m
New Line.LINE12_284 Bus1=12_274 Bus2=12_285 phases=3 Linecode=2c_.0225 Length=9.7001 Units=m
New Line.LINE12_285 Bus1=12_274 Bus2=12_286 phases=3 Linecode=4c_.06 Length=6.2438 Units=m
New Line.LINE12_286 Bus1=12_275 Bus2=12_287 phases=3 Linecode=4c_.5 Length=0.5602 Units=m
New Line.LINE12_287 Bus1=12_276 Bus2=12_288 phases=3 Linecode=4c_.06 Length=0.21946 Units=m
New Line.LINE12_288 Bus1=12_277 Bus2=12_289 phases=3 Linecode=2c_.0225 Length=1.2446 Units=m
New Line.LINE12_289 Bus1=12_280 Bus2=12_290 phases=3 Linecode=4c_.06 Length=0.58992 Units=m
New Line.LINE12_290 Bus1=12_281 Bus2=12_291 phases=3 Linecode=2c_.0225 Length=0.28618 Units=m
New Line.LINE12_291 Bus1=12_282 Bus2=12_292 phases=3 Linecode=2c_.007 Length=1.1696 Units=m
New Line.LINE12_292 Bus1=12_283 Bus2=12_293 phases=3 Linecode=2c_.0225 Length=0.14132 Units=m
New Line.LINE12_293 Bus1=12_285 Bus2=12_294 phases=3 Linecode=2c_.0225 Length=0.31421 Units=m
New Line.LINE12_294 Bus1=12_286 Bus2=12_295 phases=3 Linecode=4c_.06 Length=5.0736 Units=m
New Line.LINE12_295 Bus1=12_287 Bus2=12_296 phases=3 Linecode=4c_.5 Length=0.64896 Units=m
New Line.LINE12_296 Bus1=12_288 Bus2=12_297 phases=3 Linecode=4c_.06 Length=0.32796 Units=m
New Line.LINE12_297 Bus1=12_289 Bus2=12_298 phases=3 Linecode=2c_.0225 Length=0.27461 Units=m
New Line.LINE12_298 Bus1=12_290 Bus2=12_299 phases=3 Linecode=4c_.06 Length=0.71512 Units=m
New Line.LINE12_299 Bus1=12_291 Bus2=12_300 phases=3 Linecode=2c_.0225 Length=0.2702 Units=m
New Line.LINE12_300 Bus1=12_293 Bus2=12_301 phases=3 Linecode=2c_.0225 Length=0.13647 Units=m
New Line.LINE12_301 Bus1=12_294 Bus2=12_302 phases=3 Linecode=2c_.0225 Length=0.28104 Units=m
New Line.LINE12_302 Bus1=12_295 Bus2=12_303 phases=3 Linecode=4c_.06 Length=3.0506 Units=m
New Line.LINE12_303 Bus1=12_296 Bus2=12_304 phases=3 Linecode=4c_.5 Length=0.3727 Units=m
New Line.LINE12_304 Bus1=12_297 Bus2=12_305 phases=3 Linecode=4c_.06 Length=0.29557 Units=m
New Line.LINE12_305 Bus1=12_298 Bus2=12_306 phases=3 Linecode=2c_.0225 Length=0.22638 Units=m
New Line.LINE12_306 Bus1=12_299 Bus2=12_307 phases=3 Linecode=4c_.06 Length=1.05 Units=m
New Line.LINE12_307 Bus1=12_300 Bus2=12_308 phases=3 Linecode=2c_.0225 Length=0.22062 Units=m
New Line.LINE12_308 Bus1=12_301 Bus2=12_309 phases=3 Linecode=2c_.0225 Length=0.80025 Units=m
New Line.LINE12_309 Bus1=12_302 Bus2=12_310 phases=3 Linecode=2c_.0225 Length=0.19873 Units=m
New Line.LINE12_310 Bus1=12_303 Bus2=12_311 phases=3 Linecode=4c_.06 Length=1.1717 Units=m
New Line.LINE12_311 Bus1=12_304 Bus2=12_312 phases=3 Linecode=4c_.5 Length=0.45283 Units=m
New Line.LINE12_312 Bus1=12_305 Bus2=12_313 phases=3 Linecode=4c_.06 Length=0.34972 Units=m
New Line.LINE12_313 Bus1=12_306 Bus2=12_314 phases=3 Linecode=2c_.0225 Length=0.34976 Units=m
New Line.LINE12_314 Bus1=12_307 Bus2=12_315 phases=3 Linecode=4c_.06 Length=0.8433 Units=m
New Line.LINE12_315 Bus1=12_308 Bus2=12_316 phases=3 Linecode=2c_.0225 Length=0.14001 Units=m
New Line.LINE12_316 Bus1=12_309 Bus2=12_317 phases=3 Linecode=2c_.0225 Length=4.8023 Units=m
New Line.LINE12_317 Bus1=12_310 Bus2=12_318 phases=3 Linecode=2c_.0225 Length=0.24537 Units=m
New Line.LINE12_318 Bus1=12_311 Bus2=12_319 phases=3 Linecode=2c_.04 Length=7.9319 Units=m
New Line.LINE12_319 Bus1=12_311 Bus2=12_320 phases=3 Linecode=4c_.06 Length=0.86868 Units=m
New Line.LINE12_320 Bus1=12_312 Bus2=12_321 phases=3 Linecode=4c_.5 Length=0.41448 Units=m
New Line.LINE12_321 Bus1=12_314 Bus2=12_322 phases=3 Linecode=2c_.0225 Length=3.8953 Units=m
New Line.LINE12_322 Bus1=12_315 Bus2=12_323 phases=3 Linecode=4c_.06 Length=0.86875 Units=m
New Line.LINE12_323 Bus1=12_316 Bus2=12_324 phases=3 Linecode=2c_.0225 Length=0.49368 Units=m
New Line.LINE12_324 Bus1=12_318 Bus2=12_325 phases=3 Linecode=2c_.0225 Length=0.23314 Units=m
New Line.LINE12_325 Bus1=12_319 Bus2=12_326 phases=3 Linecode=2c_.04 Length=5.3493 Units=m
New Line.LINE12_326 Bus1=12_319 Bus2=12_327 phases=3 Linecode=2c_.04 Length=5.3493 Units=m
New Line.LINE12_327 Bus1=12_320 Bus2=12_328 phases=3 Linecode=4c_.06 Length=0.67887 Units=m
New Line.LINE12_328 Bus1=12_321 Bus2=12_329 phases=3 Linecode=4c_.5 Length=0.56602 Units=m
New Line.LINE12_329 Bus1=12_322 Bus2=12_330 phases=3 Linecode=2c_.0225 Length=0.15988 Units=m
New Line.LINE12_330 Bus1=12_323 Bus2=12_331 phases=3 Linecode=4c_.06 Length=0.8244 Units=m
New Line.LINE12_331 Bus1=12_324 Bus2=12_332 phases=3 Linecode=2c_.0225 Length=5.7252 Units=m
New Line.LINE12_332 Bus1=12_325 Bus2=12_333 phases=3 Linecode=2c_.0225 Length=0.19393 Units=m
New Line.LINE12_333 Bus1=12_328 Bus2=12_334 phases=3 Linecode=4c_.06 Length=1.3548 Units=m
New Line.LINE12_334 Bus1=12_329 Bus2=12_335 phases=3 Linecode=4c_.5 Length=2.1841 Units=m
New Line.LINE12_335 Bus1=12_330 Bus2=12_336 phases=3 Linecode=2c_.0225 Length=0.21537 Units=m
New Line.LINE12_336 Bus1=12_331 Bus2=12_337 phases=3 Linecode=4c_.06 Length=6.1793 Units=m
New Line.LINE12_337 Bus1=12_331 Bus2=12_338 phases=3 Linecode=4c_.06 Length=1.019 Units=m
New Line.LINE12_338 Bus1=12_333 Bus2=12_339 phases=3 Linecode=2c_.0225 Length=0.36749 Units=m
New Line.LINE12_339 Bus1=12_334 Bus2=12_340 phases=3 Linecode=4c_.06 Length=0.8471 Units=m
New Line.LINE12_340 Bus1=12_335 Bus2=12_341 phases=3 Linecode=4c_.5 Length=12.7317 Units=m
New Line.LINE12_341 Bus1=12_336 Bus2=12_342 phases=3 Linecode=2c_.0225 Length=0.18832 Units=m
New Line.LINE12_342 Bus1=12_337 Bus2=12_343 phases=3 Linecode=4c_.06 Length=0.53828 Units=m
New Line.LINE12_343 Bus1=12_338 Bus2=12_344 phases=3 Linecode=4c_.06 Length=7.4447 Units=m
New Line.LINE12_344 Bus1=12_339 Bus2=12_345 phases=3 Linecode=2c_.0225 Length=2.66 Units=m
New Line.LINE12_345 Bus1=12_340 Bus2=12_346 phases=3 Linecode=4c_.06 Length=1.234 Units=m
New Line.LINE12_346 Bus1=12_341 Bus2=12_347 phases=3 Linecode=4c_.5 Length=0.43233 Units=m
New Line.LINE12_347 Bus1=12_342 Bus2=12_348 phases=3 Linecode=2c_.0225 Length=0.21465 Units=m
New Line.LINE12_348 Bus1=12_343 Bus2=12_349 phases=3 Linecode=4c_.06 Length=0.45839 Units=m
New Line.LINE12_349 Bus1=12_344 Bus2=12_350 phases=3 Linecode=2c_.0225 Length=6.8184 Units=m
New Line.LINE12_350 Bus1=12_344 Bus2=12_351 phases=3 Linecode=4c_.06 Length=13.1234 Units=m
New Line.LINE12_351 Bus1=12_346 Bus2=12_352 phases=3 Linecode=4c_.06 Length=0.77824 Units=m
New Line.LINE12_352 Bus1=12_347 Bus2=12_353 phases=3 Linecode=4c_.5 Length=0.44263 Units=m
New Line.LINE12_353 Bus1=12_348 Bus2=12_354 phases=3 Linecode=2c_.0225 Length=0.522 Units=m
New Line.LINE12_354 Bus1=12_349 Bus2=12_355 phases=3 Linecode=4c_.06 Length=0.40447 Units=m
New Line.LINE12_355 Bus1=12_350 Bus2=12_356 phases=3 Linecode=2c_.0225 Length=5.6049 Units=m
New Line.LINE12_356 Bus1=12_351 Bus2=12_357 phases=3 Linecode=2c_.0225 Length=6.7441 Units=m
New Line.LINE12_357 Bus1=12_351 Bus2=12_358 phases=3 Linecode=4c_.06 Length=3.0093 Units=m
New Line.LINE12_358 Bus1=12_352 Bus2=12_359 phases=3 Linecode=4c_.06 Length=0.65613 Units=m
New Line.LINE12_359 Bus1=12_353 Bus2=12_360 phases=3 Linecode=4c_.5 Length=0.54267 Units=m
New Line.LINE12_360 Bus1=12_354 Bus2=12_361 phases=3 Linecode=2c_.0225 Length=1.0967 Units=m
New Line.LINE12_361 Bus1=12_354 Bus2=12_362 phases=3 Linecode=2c_.0225 Length=1.0967 Units=m
New Line.LINE12_362 Bus1=12_355 Bus2=12_363 phases=3 Linecode=4c_.06 Length=0.43584 Units=m
New Line.LINE12_363 Bus1=12_357 Bus2=12_364 phases=3 Linecode=2c_.0225 Length=5.499 Units=m
New Line.LINE12_364 Bus1=12_358 Bus2=12_365 phases=3 Linecode=4c_.06 Length=0.19818 Units=m
New Line.LINE12_365 Bus1=12_358 Bus2=12_366 phases=3 Linecode=4c_.06 Length=2.8695 Units=m
New Line.LINE12_366 Bus1=12_359 Bus2=12_367 phases=3 Linecode=4c_.06 Length=1.244 Units=m
New Line.LINE12_367 Bus1=12_360 Bus2=12_368 phases=3 Linecode=4c_.5 Length=7.6605 Units=m
New Line.LINE12_368 Bus1=12_363 Bus2=12_369 phases=3 Linecode=4c_.06 Length=0.64086 Units=m
New Line.LINE12_369 Bus1=12_365 Bus2=12_370 phases=3 Linecode=4c_.06 Length=0.13294 Units=m
New Line.LINE12_370 Bus1=12_366 Bus2=12_371 phases=3 Linecode=2c_.0225 Length=2.1311 Units=m
New Line.LINE12_371 Bus1=12_366 Bus2=12_372 phases=3 Linecode=4c_.06 Length=1.4344 Units=m
New Line.LINE12_372 Bus1=12_367 Bus2=12_373 phases=3 Linecode=4c_.06 Length=2.0093 Units=m
New Line.LINE12_373 Bus1=12_368 Bus2=12_374 phases=3 Linecode=4c_.5 Length=0.2452 Units=m
New Line.LINE12_374 Bus1=12_369 Bus2=12_375 phases=3 Linecode=4c_.06 Length=0.54603 Units=m
New Line.LINE12_375 Bus1=12_370 Bus2=12_376 phases=3 Linecode=4c_.06 Length=0.21225 Units=m
New Line.LINE12_376 Bus1=12_371 Bus2=12_377 phases=3 Linecode=2c_.0225 Length=0.51751 Units=m
New Line.LINE12_377 Bus1=12_373 Bus2=12_378 phases=3 Linecode=4c_.06 Length=2.4825 Units=m
New Line.LINE12_378 Bus1=12_374 Bus2=12_379 phases=3 Linecode=4c_.5 Length=0.055946 Units=m
New Line.LINE12_379 Bus1=12_375 Bus2=12_380 phases=3 Linecode=4c_.06 Length=0.73814 Units=m
New Line.LINE12_380 Bus1=12_376 Bus2=12_381 phases=3 Linecode=4c_.06 Length=0.17156 Units=m
New Line.LINE12_381 Bus1=12_377 Bus2=12_382 phases=3 Linecode=2c_.0225 Length=0.26011 Units=m
New Line.LINE12_382 Bus1=12_378 Bus2=12_383 phases=3 Linecode=4c_.06 Length=3.4195 Units=m
New Line.LINE12_383 Bus1=12_379 Bus2=12_384 phases=3 Linecode=4c_.5 Length=0.072402 Units=m
New Line.LINE12_384 Bus1=12_380 Bus2=12_385 phases=3 Linecode=4c_.06 Length=7.4321 Units=m
New Line.LINE12_385 Bus1=12_381 Bus2=12_386 phases=3 Linecode=4c_.06 Length=0.17831 Units=m
New Line.LINE12_386 Bus1=12_382 Bus2=12_387 phases=3 Linecode=2c_.0225 Length=0.2452 Units=m
New Line.LINE12_387 Bus1=12_383 Bus2=12_388 phases=3 Linecode=4c_.06 Length=2.8291 Units=m
New Line.LINE12_388 Bus1=12_384 Bus2=12_389 phases=3 Linecode=4c_.5 Length=0.073246 Units=m
New Line.LINE12_389 Bus1=12_385 Bus2=12_390 phases=3 Linecode=4c_.06 Length=0.35124 Units=m
New Line.LINE12_390 Bus1=12_386 Bus2=12_391 phases=3 Linecode=4c_.06 Length=0.14958 Units=m
New Line.LINE12_391 Bus1=12_387 Bus2=12_392 phases=3 Linecode=2c_.0225 Length=0.21019 Units=m
New Line.LINE12_392 Bus1=12_388 Bus2=12_393 phases=3 Linecode=2c_.0225 Length=6.068 Units=m
New Line.LINE12_393 Bus1=12_388 Bus2=12_394 phases=3 Linecode=4c_.06 Length=3.6437 Units=m
New Line.LINE12_394 Bus1=12_389 Bus2=12_395 phases=3 Linecode=4c_.5 Length=0.087658 Units=m
New Line.LINE12_395 Bus1=12_390 Bus2=12_396 phases=3 Linecode=4c_.06 Length=1.351 Units=m
New Line.LINE12_396 Bus1=12_391 Bus2=12_397 phases=3 Linecode=4c_.06 Length=0.9712 Units=m
New Line.LINE12_397 Bus1=12_392 Bus2=12_398 phases=3 Linecode=2c_.0225 Length=0.44931 Units=m
New Line.LINE12_398 Bus1=12_393 Bus2=12_399 phases=3 Linecode=2c_.0225 Length=4.0569 Units=m
New Line.LINE12_399 Bus1=12_394 Bus2=12_400 phases=3 Linecode=4c_.06 Length=2.6562 Units=m
New Line.LINE12_400 Bus1=12_395 Bus2=12_401 phases=3 Linecode=4c_.5 Length=0.090139 Units=m
New Line.LINE12_401 Bus1=12_398 Bus2=12_402 phases=3 Linecode=2c_.0225 Length=1.0331 Units=m
New Line.LINE12_402 Bus1=12_400 Bus2=12_403 phases=3 Linecode=4c_.06 Length=5.9147 Units=m
New Line.LINE12_403 Bus1=12_401 Bus2=12_404 phases=3 Linecode=4c_.5 Length=0.14013 Units=m
New Line.LINE12_404 Bus1=12_402 Bus2=12_405 phases=3 Linecode=2c_.0225 Length=0.77086 Units=m
New Line.LINE12_405 Bus1=12_403 Bus2=12_406 phases=3 Linecode=2c_.0225 Length=5.2004 Units=m
New Line.LINE12_406 Bus1=12_403 Bus2=12_407 phases=3 Linecode=4c_.06 Length=1.6967 Units=m
New Line.LINE12_407 Bus1=12_404 Bus2=12_408 phases=3 Linecode=4c_.5 Length=0.34266 Units=m
New Line.LINE12_408 Bus1=12_405 Bus2=12_409 phases=3 Linecode=2c_.0225 Length=0.36628 Units=m
New Line.LINE12_409 Bus1=12_406 Bus2=12_410 phases=3 Linecode=2c_.0225 Length=0.86161 Units=m
New Line.LINE12_410 Bus1=12_406 Bus2=12_411 phases=3 Linecode=2c_.0225 Length=0.85918 Units=m
New Line.LINE12_411 Bus1=12_407 Bus2=12_412 phases=3 Linecode=4c_.06 Length=8.3989 Units=m
New Line.LINE12_412 Bus1=12_408 Bus2=12_413 phases=3 Linecode=4c_.5 Length=0.79546 Units=m
New Line.LINE12_413 Bus1=12_409 Bus2=12_414 phases=3 Linecode=2c_.0225 Length=0.2531 Units=m
New Line.LINE12_414 Bus1=12_410 Bus2=12_415 phases=3 Linecode=2c_.0225 Length=5.6278 Units=m
New Line.LINE12_415 Bus1=12_411 Bus2=12_416 phases=3 Linecode=2c_.0225 Length=0.35116 Units=m
New Line.LINE12_416 Bus1=12_412 Bus2=12_417 phases=3 Linecode=4c_.06 Length=2.446 Units=m
New Line.LINE12_417 Bus1=12_413 Bus2=12_418 phases=3 Linecode=4c_.5 Length=1.7136 Units=m
New Line.LINE12_418 Bus1=12_414 Bus2=12_419 phases=3 Linecode=2c_.0225 Length=0.30959 Units=m
New Line.LINE12_419 Bus1=12_416 Bus2=12_420 phases=3 Linecode=2c_.0225 Length=0.17651 Units=m
New Line.LINE12_420 Bus1=12_417 Bus2=12_421 phases=3 Linecode=4c_.06 Length=2.1229 Units=m
New Line.LINE12_421 Bus1=12_418 Bus2=12_422 phases=3 Linecode=4c_.5 Length=0.09434 Units=m
New Line.LINE12_422 Bus1=12_419 Bus2=12_423 phases=3 Linecode=2c_.0225 Length=2.3991 Units=m
New Line.LINE12_423 Bus1=12_420 Bus2=12_424 phases=3 Linecode=2c_.0225 Length=0.10107 Units=m
New Line.LINE12_424 Bus1=12_421 Bus2=12_425 phases=3 Linecode=4c_.06 Length=2.5729 Units=m
New Line.LINE12_425 Bus1=12_421 Bus2=12_426 phases=3 Linecode=2c_.0225 Length=5.2133 Units=m
New Line.LINE12_426 Bus1=12_422 Bus2=12_427 phases=3 Linecode=4c_.5 Length=0.098838 Units=m
New Line.LINE12_427 Bus1=12_423 Bus2=12_428 phases=3 Linecode=2c_.0225 Length=0.35512 Units=m
New Line.LINE12_428 Bus1=12_424 Bus2=12_429 phases=3 Linecode=2c_.0225 Length=0.12143 Units=m
New Line.LINE12_429 Bus1=12_425 Bus2=12_430 phases=3 Linecode=4c_.06 Length=3.6289 Units=m
New Line.LINE12_430 Bus1=12_425 Bus2=12_431 phases=3 Linecode=4c_.06 Length=0.48941 Units=m
New Line.LINE12_431 Bus1=12_426 Bus2=12_432 phases=3 Linecode=2c_.0225 Length=1.079 Units=m
New Line.LINE12_432 Bus1=12_426 Bus2=12_433 phases=3 Linecode=2c_.0225 Length=1.08 Units=m
New Line.LINE12_433 Bus1=12_427 Bus2=12_434 phases=3 Linecode=4c_.5 Length=0.083024 Units=m
New Line.LINE12_434 Bus1=12_428 Bus2=12_435 phases=3 Linecode=2c_.0225 Length=0.17923 Units=m
New Line.LINE12_435 Bus1=12_429 Bus2=12_436 phases=3 Linecode=2c_.0225 Length=0.618 Units=m
New Line.LINE12_436 Bus1=12_430 Bus2=12_437 phases=3 Linecode=4c_.06 Length=2.7415 Units=m
New Line.LINE12_437 Bus1=12_431 Bus2=12_438 phases=3 Linecode=4c_.06 Length=4.3441 Units=m
New Line.LINE12_438 Bus1=12_432 Bus2=12_439 phases=3 Linecode=2c_.0225 Length=0.16006 Units=m
New Line.LINE12_439 Bus1=12_433 Bus2=12_440 phases=3 Linecode=2c_.0225 Length=5.257 Units=m
New Line.LINE12_440 Bus1=12_434 Bus2=12_441 phases=3 Linecode=4c_.5 Length=0.10977 Units=m
New Line.LINE12_441 Bus1=12_435 Bus2=12_442 phases=3 Linecode=2c_.0225 Length=0.066468 Units=m
New Line.LINE12_442 Bus1=12_436 Bus2=12_443 phases=3 Linecode=2c_.0225 Length=4.8319 Units=m
New Line.LINE12_443 Bus1=12_437 Bus2=12_444 phases=3 Linecode=4c_.06 Length=1.9396 Units=m
New Line.LINE12_444 Bus1=12_438 Bus2=12_445 phases=3 Linecode=4c_.06 Length=0.72958 Units=m
New Line.LINE12_445 Bus1=12_439 Bus2=12_446 phases=3 Linecode=2c_.0225 Length=0.078262 Units=m
New Line.LINE12_446 Bus1=12_441 Bus2=12_447 phases=3 Linecode=4c_.5 Length=1.6719 Units=m
New Line.LINE12_447 Bus1=12_442 Bus2=12_448 phases=3 Linecode=2c_.0225 Length=0.14863 Units=m
New Line.LINE12_448 Bus1=12_444 Bus2=12_449 phases=3 Linecode=4c_.06 Length=1.9092 Units=m
New Line.LINE12_449 Bus1=12_445 Bus2=12_450 phases=3 Linecode=4c_.06 Length=1.201 Units=m
New Line.LINE12_450 Bus1=12_446 Bus2=12_451 phases=3 Linecode=2c_.0225 Length=0.14863 Units=m
New Line.LINE12_451 Bus1=12_448 Bus2=12_452 phases=3 Linecode=2c_.0225 Length=0.611 Units=m
New Line.LINE12_452 Bus1=12_449 Bus2=12_453 phases=3 Linecode=4c_.06 Length=2.0202 Units=m
New Line.LINE12_453 Bus1=12_451 Bus2=12_454 phases=3 Linecode=2c_.0225 Length=0.164 Units=m
New Line.LINE12_454 Bus1=12_452 Bus2=12_455 phases=3 Linecode=2c_.0225 Length=5.158 Units=m
New Line.LINE12_455 Bus1=12_452 Bus2=12_456 phases=3 Linecode=2c_.0225 Length=5.158 Units=m
New Line.LINE12_456 Bus1=12_453 Bus2=12_457 phases=3 Linecode=4c_.06 Length=1.2361 Units=m
New Line.LINE12_457 Bus1=12_454 Bus2=12_458 phases=3 Linecode=2c_.0225 Length=0.61012 Units=m
New Line.LINE12_458 Bus1=12_457 Bus2=12_459 phases=3 Linecode=4c_.06 Length=2.5823 Units=m
New Line.LINE12_459 Bus1=12_457 Bus2=12_460 phases=3 Linecode=2c_.0225 Length=4.7429 Units=m
New Line.LINE12_460 Bus1=12_458 Bus2=12_461 phases=3 Linecode=2c_.0225 Length=5.1151 Units=m
New Line.LINE12_461 Bus1=12_459 Bus2=12_462 phases=3 Linecode=4c_.06 Length=1.5639 Units=m
New Line.LINE12_462 Bus1=12_460 Bus2=12_463 phases=3 Linecode=2c_.0225 Length=0.45846 Units=m
New Line.LINE12_463 Bus1=12_462 Bus2=12_464 phases=3 Linecode=4c_.06 Length=1.6957 Units=m
New Line.LINE12_464 Bus1=12_463 Bus2=12_465 phases=3 Linecode=2c_.0225 Length=0.23692 Units=m
New Line.LINE12_465 Bus1=12_464 Bus2=12_466 phases=3 Linecode=4c_.06 Length=1.2335 Units=m
New Line.LINE12_466 Bus1=12_465 Bus2=12_467 phases=3 Linecode=2c_.0225 Length=0.51779 Units=m
New Line.LINE12_467 Bus1=12_466 Bus2=12_468 phases=3 Linecode=4c_.06 Length=1.744 Units=m
New Line.LINE12_468 Bus1=12_467 Bus2=12_469 phases=3 Linecode=2c_.0225 Length=5.3108 Units=m
New Line.LINE12_469 Bus1=12_468 Bus2=12_470 phases=3 Linecode=4c_.06 Length=2.2639 Units=m
New Line.LINE12_470 Bus1=12_470 Bus2=12_471 phases=3 Linecode=4c_.06 Length=1.5627 Units=m
New Line.LINE12_471 Bus1=12_471 Bus2=12_472 phases=3 Linecode=4c_.06 Length=2.6474 Units=m
New Line.LINE12_472 Bus1=12_471 Bus2=12_473 phases=3 Linecode=2c_.0225 Length=6.4848 Units=m
New Line.LINE12_473 Bus1=12_472 Bus2=12_474 phases=3 Linecode=4c_.06 Length=0.772 Units=m
New Line.LINE12_474 Bus1=12_472 Bus2=12_475 phases=3 Linecode=2c_.007 Length=0.2158 Units=m
New Line.LINE12_475 Bus1=12_472 Bus2=12_476 phases=3 Linecode=2c_.0225 Length=6.5334 Units=m
New Line.LINE12_476 Bus1=12_473 Bus2=12_477 phases=3 Linecode=2c_.0225 Length=5.4074 Units=m
New Line.LINE12_477 Bus1=12_475 Bus2=12_478 phases=3 Linecode=2c_.007 Length=0.11709 Units=m
New Line.LINE12_478 Bus1=12_476 Bus2=12_479 phases=3 Linecode=2c_.0225 Length=5.2894 Units=m
New Line.LINE12_479 Bus1=12_478 Bus2=12_480 phases=3 Linecode=2c_.007 Length=0.10141 Units=m
New Line.LINE12_480 Bus1=12_480 Bus2=12_481 phases=3 Linecode=2c_.007 Length=0.24452 Units=m
New Line.LINE12_481 Bus1=12_481 Bus2=12_482 phases=3 Linecode=2c_.007 Length=0.15473 Units=m
New Line.LINE12_482 Bus1=12_482 Bus2=12_483 phases=3 Linecode=2c_.007 Length=0.16227 Units=m
New Line.LINE12_483 Bus1=12_483 Bus2=12_484 phases=3 Linecode=2c_.007 Length=0.18588 Units=m
New Line.LINE12_484 Bus1=12_484 Bus2=12_485 phases=3 Linecode=2c_.007 Length=0.23497 Units=m
New Line.LINE12_485 Bus1=12_485 Bus2=12_486 phases=3 Linecode=2c_.007 Length=0.26042 Units=m
New Line.LINE12_486 Bus1=12_486 Bus2=12_487 phases=3 Linecode=2c_.007 Length=0.21893 Units=m
New Line.LINE12_487 Bus1=12_487 Bus2=12_488 phases=3 Linecode=2c_.007 Length=0.17918 Units=m
New Line.LINE12_488 Bus1=12_488 Bus2=12_489 phases=3 Linecode=2c_.007 Length=3.9787 Units=m
New Line.LINE12_489 Bus1=12_489 Bus2=12_490 phases=3 Linecode=2c_.007 Length=0.30787 Units=m
New Line.LINE12_490 Bus1=12_490 Bus2=12_491 phases=3 Linecode=2c_.007 Length=0.25303 Units=m
New Line.LINE12_491 Bus1=12_491 Bus2=12_492 phases=3 Linecode=2c_.007 Length=0.289 Units=m
New Line.LINE12_492 Bus1=12_492 Bus2=12_493 phases=3 Linecode=2c_.007 Length=0.29785 Units=m
New Line.LINE12_493 Bus1=12_493 Bus2=12_494 phases=3 Linecode=2c_.007 Length=0.44073 Units=m
New Line.LINE12_494 Bus1=12_494 Bus2=12_495 phases=3 Linecode=2c_.007 Length=5.1036 Units=m
New Line.LINE12_495 Bus1=12_495 Bus2=12_496 phases=3 Linecode=2c_.007 Length=0.074007 Units=m
New Line.LINE12_496 Bus1=12_496 Bus2=12_497 phases=3 Linecode=2c_.007 Length=0.044385 Units=m
New Line.LINE12_497 Bus1=12_497 Bus2=12_498 phases=3 Linecode=2c_.007 Length=0.10794 Units=m
New Line.LINE12_498 Bus1=12_498 Bus2=12_499 phases=3 Linecode=2c_.007 Length=0.13695 Units=m
New Line.LINE12_499 Bus1=12_499 Bus2=12_500 phases=3 Linecode=2c_.007 Length=0.13382 Units=m
New Line.LINE12_500 Bus1=12_500 Bus2=12_501 phases=3 Linecode=4_PSC Length=0.068622 Units=m
New Line.LINE12_501 Bus1=12_501 Bus2=12_502 phases=3 Linecode=4_PSC Length=0.098387 Units=m
New Line.LINE12_502 Bus1=12_502 Bus2=12_503 phases=3 Linecode=4_PSC Length=0.153 Units=m
New Line.LINE12_503 Bus1=12_503 Bus2=12_504 phases=3 Linecode=4_PSC Length=0.38204 Units=m
New Line.LINE12_504 Bus1=12_504 Bus2=12_505 phases=3 Linecode=4_PSC Length=0.3396 Units=m
